1bcu_ligand
 OpenBabel09292304053D

 27 29  0  0  0  0  0  0  0  0999 V2000
   -2.4412   -1.3990    0.0106 C   0  0  0  0  0  0  0  0  0  0  0  0
   -3.6338   -0.6784   -0.0234 C   0  0  0  0  0  0  0  0  0  0  0  0
   -3.6149    0.7135    0.0064 C   0  0  0  0  0  0  0  0  0  0  0  0
   -2.3774    1.3688   -0.0225 C   0  0  0  0  0  0  0  0  0  0  0  0
    2.3632    1.3876   -0.0202 C   0  0  0  0  0  0  0  0  0  0  0  0
    3.6064    0.7431    0.0067 C   0  0  0  0  0  0  0  0  0  0  0  0
    3.6358   -0.6494   -0.0179 C   0  0  0  0  0  0  0  0  0  0  0  0
    2.4486   -1.3791    0.0183 C   0  0  0  0  0  0  0  0  0  0  0  0
    0.0037   -1.4175    0.0455 C   0  0  0  0  0  0  0  0  0  0  0  0
   -0.0073    1.3639    0.0044 N   0  0  0  0  0  0  0  0  0  0  0  0
   -1.1682    0.6808    0.0088 C   0  0  0  0  0  0  0  0  0  0  0  0
    1.2129   -0.7151    0.0340 C   0  0  0  0  0  0  0  0  0  0  0  0
   -1.2098   -0.7255    0.0302 C   0  0  0  0  0  0  0  0  0  0  0  0
    1.1594    0.6894    0.0118 C   0  0  0  0  0  0  0  0  0  0  0  0
   -4.8027    1.4348   -0.1719 N   0  0  0  0  0  0  0  0  0  0  0  0
    4.7875    1.4715   -0.1821 N   0  0  0  0  0  0  0  0  0  0  0  0
   -2.4785   -2.4857    0.0012 H   0  0  0  0  0  0  0  0  0  0  0  0
   -4.5773   -1.2154   -0.0784 H   0  0  0  0  0  0  0  0  0  0  0  0
   -2.3426    2.4539   -0.0747 H   0  0  0  0  0  0  0  0  0  0  0  0
    2.3204    2.4727   -0.0731 H   0  0  0  0  0  0  0  0  0  0  0  0
    4.5831   -1.1793   -0.0716 H   0  0  0  0  0  0  0  0  0  0  0  0
    2.4947   -2.4653    0.0109 H   0  0  0  0  0  0  0  0  0  0  0  0
    0.0084   -2.5051    0.0507 H   0  0  0  0  0  0  0  0  0  0  0  0
   -4.7552    2.3957    0.1513 H   0  0  0  0  0  0  0  0  0  0  0  0
   -5.6337    0.9552    0.1591 H   0  0  0  0  0  0  0  0  0  0  0  0
    5.6254    1.0003    0.1437 H   0  0  0  0  0  0  0  0  0  0  0  0
    4.7357    2.4347    0.1353 H   0  0  0  0  0  0  0  0  0  0  0  0
  1 13  2  0  0  0  0
  1  2  1  0  0  0  0
  1 17  1  0  0  0  0
  2  3  2  0  0  0  0
  2 18  1  0  0  0  0
  3 15  1  0  0  0  0
  3  4  1  0  0  0  0
  4 11  2  0  0  0  0
  4 19  1  0  0  0  0
  5  6  2  0  0  0  0
  5 20  1  0  0  0  0
  6 16  1  0  0  0  0
  6  7  1  0  0  0  0
  7  8  2  0  0  0  0
  7 21  1  0  0  0  0
  8 22  1  0  0  0  0
  9 12  2  0  0  0  0
  9 23  1  0  0  0  0
 11 10  1  0  0  0  0
 11 13  1  0  0  0  0
 12  8  1  0  0  0  0
 12 14  1  0  0  0  0
 13  9  1  0  0  0  0
 14  5  1  0  0  0  0
 14 10  2  0  0  0  0
 15 24  1  0  0  0  0
 15 25  1  0  0  0  0
 16 26  1  0  0  0  0
 16 27  1  0  0  0  0
M  END
$$$$
