2qbq_ligand
 OpenBabel09292303013D

 57 59  0  0  0  0  0  0  0  0999 V2000
    1.4012   -0.9179   -0.1006 S   0  0  0  0  0  0  0  0  0  0  0  0
    2.0064   -2.1383    0.9593 C   0  0  0  0  0  0  0  0  0  0  0  0
    2.1359   -1.6262    2.2567 C   0  0  0  0  0  0  0  0  0  0  0  0
    1.3125   -0.4612    2.3945 C   0  0  0  0  0  0  0  0  0  0  0  0
    0.8194    0.0368    1.2064 C   0  0  0  0  0  0  0  0  0  0  0  0
    2.2932   -3.5353    0.5052 C   0  0  0  0  0  0  0  0  0  0  0  0
    2.3342   -3.7148   -0.7586 O   0  5  0  0  0  0  0  0  0  0  0  0
    2.4024   -4.4621    1.3626 O   0  0  0  0  0  0  0  0  0  0  0  0
   -0.1873    1.0973    0.9830 C   0  0  0  0  0  0  0  0  0  0  0  0
   -0.1089    2.3698    1.6192 C   0  0  0  0  0  0  0  0  0  0  0  0
   -1.2047    3.2634    1.6791 C   0  0  0  0  0  0  0  0  0  0  0  0
   -2.3917    2.7845    1.1091 C   0  0  0  0  0  0  0  0  0  0  0  0
   -2.4486    1.5965    0.3408 C   0  0  0  0  0  0  0  0  0  0  0  0
   -1.3444    0.7617    0.2835 C   0  0  0  0  0  0  0  0  0  0  0  0
    0.8387    0.1801    4.1260 Br  0  0  0  0  0  0  0  0  0  0  0  0
    2.7621   -2.1987    3.3057 O   0  0  0  0  0  0  0  0  0  0  0  0
    4.0855   -2.6871    3.0281 C   0  0  0  0  0  0  0  0  0  0  0  0
    5.1624   -1.9048    3.8220 C   0  0  0  0  0  0  0  0  0  0  0  0
    5.3619   -0.7051    3.4722 O   0  5  0  0  0  0  0  0  0  0  0  0
    5.7957   -2.5751    4.6964 O   0  0  0  0  0  0  0  0  0  0  0  0
   -1.0417    4.5631    2.2164 N   0  0  0  0  0  0  0  0  0  0  0  0
   -1.9213    5.7483    1.9943 C   0  0  0  0  0  0  0  0  0  0  0  0
   -2.3992    5.8109    0.5645 C   0  0  0  0  0  0  0  0  0  0  0  0
   -1.2739    6.1403   -0.4325 C   0  0  0  0  0  0  0  0  0  0  0  0
   -1.0744    7.6460   -0.2961 C   0  0  0  0  0  0  0  0  0  0  0  0
   -0.6816    8.0942    1.1496 C   0  0  0  0  0  0  0  0  0  0  0  0
   -1.3761    7.2189    2.3056 C   0  0  0  0  0  0  0  0  0  0  0  0
    0.1194    5.4946   -0.2680 C   0  0  0  0  0  0  0  0  0  0  0  0
   -1.8206    5.7200   -1.7999 C   0  0  0  0  0  0  0  0  0  0  0  0
    0.8480    8.1022    1.4102 C   0  0  0  0  0  0  0  0  0  0  0  0
   -1.0743    9.6072    1.1486 C   0  0  0  0  0  0  0  0  0  0  0  0
    0.8328    2.6426    2.0921 H   0  0  0  0  0  0  0  0  0  0  0  0
   -3.3197    3.3200    1.2113 H   0  0  0  0  0  0  0  0  0  0  0  0
   -3.3667    1.3005   -0.1533 H   0  0  0  0  0  0  0  0  0  0  0  0
   -1.4225   -0.1879   -0.2529 H   0  0  0  0  0  0  0  0  0  0  0  0
    4.1183   -3.7477    3.3229 H   0  0  0  0  0  0  0  0  0  0  0  0
    4.3630   -2.6244    1.9695 H   0  0  0  0  0  0  0  0  0  0  0  0
   -0.1935    4.7009    2.7575 H   0  0  0  0  0  0  0  0  0  0  0  0
   -2.7749    5.5963    2.6707 H   0  0  0  0  0  0  0  0  0  0  0  0
   -2.9507    4.9318    0.2480 H   0  0  0  0  0  0  0  0  0  0  0  0
   -3.1822    6.5869    0.5204 H   0  0  0  0  0  0  0  0  0  0  0  0
   -0.3468    8.0134   -1.0318 H   0  0  0  0  0  0  0  0  0  0  0  0
   -2.0228    8.1269   -0.5790 H   0  0  0  0  0  0  0  0  0  0  0  0
   -2.2770    7.7928    2.5743 H   0  0  0  0  0  0  0  0  0  0  0  0
   -0.7653    7.2163    3.2152 H   0  0  0  0  0  0  0  0  0  0  0  0
    0.1238    4.4315   -0.5078 H   0  0  0  0  0  0  0  0  0  0  0  0
    0.8412    5.9795   -0.9364 H   0  0  0  0  0  0  0  0  0  0  0  0
    0.5400    5.6124    0.7330 H   0  0  0  0  0  0  0  0  0  0  0  0
   -2.7981    6.1774   -1.9923 H   0  0  0  0  0  0  0  0  0  0  0  0
   -1.1418    5.9817   -2.6128 H   0  0  0  0  0  0  0  0  0  0  0  0
   -1.9677    4.6313   -1.8174 H   0  0  0  0  0  0  0  0  0  0  0  0
    1.4229    8.1313    0.4713 H   0  0  0  0  0  0  0  0  0  0  0  0
    1.1480    8.9855    1.9937 H   0  0  0  0  0  0  0  0  0  0  0  0
    1.1771    7.2445    1.9927 H   0  0  0  0  0  0  0  0  0  0  0  0
   -2.1383    9.7602    0.9389 H   0  0  0  0  0  0  0  0  0  0  0  0
   -0.8286   10.1194    2.0805 H   0  0  0  0  0  0  0  0  0  0  0  0
   -0.5244   10.1251    0.3441 H   0  0  0  0  0  0  0  0  0  0  0  0
  1  2  1  0  0  0  0
  1  5  1  0  0  0  0
  2  3  2  0  0  0  0
  2  6  1  0  0  0  0
  3  4  1  0  0  0  0
  3 16  1  0  0  0  0
  4  5  2  0  0  0  0
  4 15  1  0  0  0  0
  5  9  1  0  0  0  0
  6  7  1  0  0  0  0
  6  8  2  0  0  0  0
  9 10  2  0  0  0  0
  9 14  1  0  0  0  0
 10 11  1  0  0  0  0
 10 32  1  0  0  0  0
 11 12  2  0  0  0  0
 11 21  1  0  0  0  0
 12 13  1  0  0  0  0
 12 33  1  0  0  0  0
 13 14  2  0  0  0  0
 13 34  1  0  0  0  0
 14 35  1  0  0  0  0
 16 17  1  0  0  0  0
 17 18  1  0  0  0  0
 17 36  1  0  0  0  0
 17 37  1  0  0  0  0
 18 19  1  0  0  0  0
 18 20  2  0  0  0  0
 21 22  1  0  0  0  0
 21 38  1  0  0  0  0
 22 23  1  0  0  0  0
 22 27  1  0  0  0  0
 22 39  1  0  0  0  0
 23 24  1  0  0  0  0
 23 40  1  0  0  0  0
 23 41  1  0  0  0  0
 24 25  1  0  0  0  0
 24 28  1  0  0  0  0
 24 29  1  0  0  0  0
 25 26  1  0  0  0  0
 25 42  1  0  0  0  0
 25 43  1  0  0  0  0
 26 27  1  0  0  0  0
 26 30  1  0  0  0  0
 26 31  1  0  0  0  0
 27 44  1  0  0  0  0
 27 45  1  0  0  0  0
 28 46  1  0  0  0  0
 28 47  1  0  0  0  0
 28 48  1  0  0  0  0
 29 49  1  0  0  0  0
 29 50  1  0  0  0  0
 29 51  1  0  0  0  0
 30 52  1  0  0  0  0
 30 53  1  0  0  0  0
 30 54  1  0  0  0  0
 31 55  1  0  0  0  0
 31 56  1  0  0  0  0
 31 57  1  0  0  0  0
M  CHG  2   7  -1  19  -1
M  END
$$$$
