4e5w_ligand
 OpenBabel09292301483D

 57 61  0  0  1  0  0  0  0  0999 V2000
    1.8701    2.7874   -0.2255 C   0  0  0  0  0  0  0  0  0  0  0  0
   -0.2146    0.7771   -2.0641 C   0  0  0  0  0  0  0  0  0  0  0  0
    0.4154    1.7226    1.5735 C   0  0  0  0  0  0  0  0  0  0  0  0
    1.2327    3.5473   -1.3749 C   0  0  0  0  0  0  0  0  0  0  0  0
   -0.2986   -0.6661   -1.5529 C   0  0  0  0  0  0  0  0  0  0  0  0
   -1.3794    1.0162   -3.0296 C   0  0  0  0  0  0  0  0  0  0  0  0
   -0.2586    1.7619   -0.8977 N   0  3  2  0  0  0  0  0  0  0  0  0
   -0.2398    3.2323   -1.2638 C   0  0  0  0  0  0  0  0  0  0  0  0
    0.9251    1.6343    0.1140 C   0  0  1  0  0  0  0  0  0  0  0  0
   -0.6768    2.2581    1.7801 O   0  0  0  0  0  0  0  0  0  0  0  0
    1.1817    1.1506    2.5775 N   0  0  0  0  0  0  0  0  0  0  0  0
    0.6352    1.0175    3.9352 C   0  0  0  0  0  0  0  0  0  0  0  0
    1.4166    1.8634    4.9345 C   0  0  0  0  0  0  0  0  0  0  0  0
    2.9260    1.6184    4.8048 C   0  0  1  0  0  0  0  0  0  0  0  0
    3.4432    1.6378    3.3666 C   0  0  0  0  0  0  0  0  0  0  0  0
    2.5882    0.7737    2.4475 C   0  0  0  0  0  0  0  0  0  0  0  0
    3.7424    2.4420    5.6836 N   0  0  0  0  0  0  0  0  0  0  0  0
    4.4997    1.8661    6.6903 C   0  0  0  0  0  0  0  0  0  0  0  0
    5.2754    2.7283    7.3001 N   0  0  0  0  0  0  0  0  0  0  0  0
    5.0327    3.9239    6.6724 C   0  0  0  0  0  0  0  0  0  0  0  0
    4.0747    3.7531    5.6776 C   0  0  0  0  0  0  0  0  0  0  0  0
    3.7019    4.8505    4.9399 C   0  0  0  0  0  0  0  0  0  0  0  0
    2.7628    5.0419    3.8961 C   0  0  0  0  0  0  0  0  0  0  0  0
    2.8526    6.3822    3.5440 C   0  0  0  0  0  0  0  0  0  0  0  0
    3.7935    6.9852    4.3533 N   0  0  0  0  0  0  0  0  0  0  0  0
    4.3125    6.0534    5.2085 C   0  0  0  0  0  0  0  0  0  0  0  0
    5.2499    6.2818    6.1441 N   0  0  0  0  0  0  0  0  0  0  0  0
    5.5969    5.1908    6.8789 C   0  0  0  0  0  0  0  0  0  0  0  0
    2.8554    2.4102   -0.5213 H   0  0  0  0  0  0  0  0  0  0  0  0
    2.0249    3.4506    0.6328 H   0  0  0  0  0  0  0  0  0  0  0  0
    0.7375    0.9332   -2.5831 H   0  0  0  0  0  0  0  0  0  0  0  0
    1.6307    3.1872   -2.3307 H   0  0  0  0  0  0  0  0  0  0  0  0
    1.4330    4.6212   -1.3168 H   0  0  0  0  0  0  0  0  0  0  0  0
   -1.1979   -0.8298   -0.9527 H   0  0  0  0  0  0  0  0  0  0  0  0
   -0.3258   -1.3636   -2.3984 H   0  0  0  0  0  0  0  0  0  0  0  0
    0.5710   -0.9527   -0.9569 H   0  0  0  0  0  0  0  0  0  0  0  0
   -1.2541    1.9379   -3.6008 H   0  0  0  0  0  0  0  0  0  0  0  0
   -1.4389    0.2080   -3.7674 H   0  0  0  0  0  0  0  0  0  0  0  0
   -2.3410    1.0573   -2.5039 H   0  0  0  0  0  0  0  0  0  0  0  0
   -1.1245    1.6057   -0.3519 H   0  0  0  0  0  0  0  0  0  0  0  0
   -0.7087    3.7761   -0.4365 H   0  0  0  0  0  0  0  0  0  0  0  0
   -0.8048    3.4187   -2.1771 H   0  0  0  0  0  0  0  0  0  0  0  0
    1.3915    0.6633   -0.0456 H   0  0  0  0  0  0  0  0  0  0  0  0
    0.7011   -0.0435    4.2055 H   0  0  0  0  0  0  0  0  0  0  0  0
   -0.4258    1.2866    3.9597 H   0  0  0  0  0  0  0  0  0  0  0  0
    1.0837    1.6267    5.9553 H   0  0  0  0  0  0  0  0  0  0  0  0
    1.1753    2.9184    4.7804 H   0  0  0  0  0  0  0  0  0  0  0  0
    3.0791    0.5853    5.1547 H   0  0  0  0  0  0  0  0  0  0  0  0
    3.4413    2.6564    2.9675 H   0  0  0  0  0  0  0  0  0  0  0  0
    4.4836    1.2980    3.3271 H   0  0  0  0  0  0  0  0  0  0  0  0
    2.9442    0.9033    1.4254 H   0  0  0  0  0  0  0  0  0  0  0  0
    2.6828   -0.2897    2.6951 H   0  0  0  0  0  0  0  0  0  0  0  0
    4.4625    0.8079    6.9173 H   0  0  0  0  0  0  0  0  0  0  0  0
    2.0805    4.3476    3.4313 H   0  0  0  0  0  0  0  0  0  0  0  0
    2.3271    6.9721    2.8039 H   0  0  0  0  0  0  0  0  0  0  0  0
    4.0691    7.9529    4.3458 H   0  0  0  0  0  0  0  0  0  0  0  0
    6.3547    5.3504    7.6425 H   0  0  0  0  0  0  0  0  0  0  0  0
  1  9  1  0  0  0  0
  1 29  1  0  0  0  0
  1 30  1  0  0  0  0
  2  5  1  0  0  0  0
  2  6  1  0  0  0  0
  2 31  1  0  0  0  0
  3 10  2  0  0  0  0
  3 11  1  0  0  0  0
  4  1  1  0  0  0  0
  4 32  1  0  0  0  0
  4 33  1  0  0  0  0
  5 34  1  0  0  0  0
  5 35  1  0  0  0  0
  5 36  1  0  0  0  0
  6 37  1  0  0  0  0
  6 38  1  0  0  0  0
  6 39  1  0  0  0  0
  7  8  1  0  0  0  0
  7  9  1  0  0  0  0
  7 40  1  1  0  0  0
  7  2  1  0  0  0  0
  8  4  1  0  0  0  0
  8 41  1  0  0  0  0
  8 42  1  0  0  0  0
  9 43  1  6  0  0  0
  9  3  1  0  0  0  0
 11 12  1  0  0  0  0
 11 16  1  0  0  0  0
 12 13  1  0  0  0  0
 12 44  1  0  0  0  0
 12 45  1  0  0  0  0
 13 14  1  0  0  0  0
 13 46  1  0  0  0  0
 13 47  1  0  0  0  0
 14 15  1  0  0  0  0
 14 17  1  0  0  0  0
 14 48  1  1  0  0  0
 15 16  1  0  0  0  0
 15 49  1  0  0  0  0
 15 50  1  0  0  0  0
 16 51  1  0  0  0  0
 16 52  1  0  0  0  0
 17 18  1  0  0  0  0
 17 21  1  0  0  0  0
 18 19  2  0  0  0  0
 18 53  1  0  0  0  0
 19 20  1  0  0  0  0
 20 21  2  0  0  0  0
 20 28  1  0  0  0  0
 21 22  1  0  0  0  0
 22 23  1  0  0  0  0
 22 26  2  0  0  0  0
 23 24  2  0  0  0  0
 23 54  1  0  0  0  0
 24 25  1  0  0  0  0
 24 55  1  0  0  0  0
 25 26  1  0  0  0  0
 25 56  1  0  0  0  0
 26 27  1  0  0  0  0
 27 28  2  0  0  0  0
 28 57  1  0  0  0  0
M  CHG  1   7   1
M  END
$$$$
